TYR - Ideal conformer
     RDKit          3D

  0  0  0  0  0  0  0  0  0  0999 V3000
M  V30 BEGIN CTAB
M  V30 COUNTS 24 24 0 0 0
M  V30 BEGIN ATOM
M  V30 1 N 1.320000 0.952000 1.428000 0
M  V30 2 C -0.018000 0.429000 1.734000 0 CFG=2
M  V30 3 C -0.103000 0.094000 3.201000 0
M  V30 4 O 0.886000 -0.254000 3.799000 0
M  V30 5 C -0.274000 -0.831000 0.907000 0
M  V30 6 C -0.189000 -0.496000 -0.559000 0
M  V30 7 C 1.022000 -0.589000 -1.219000 0
M  V30 8 C -1.324000 -0.102000 -1.244000 0
M  V30 9 C 1.103000 -0.282000 -2.563000 0
M  V30 10 C -1.247000 0.210000 -2.587000 0
M  V30 11 C -0.032000 0.118000 -3.252000 0
M  V30 12 O 0.044000 0.420000 -4.574000 0
M  V30 13 O -1.279000 0.184000 3.842000 0
M  V30 14 H 1.977000 0.225000 1.669000 0
M  V30 15 H 1.365000 1.063000 0.426000 0
M  V30 16 H -0.767000 1.183000 1.489000 0
M  V30 17 H 0.473000 -1.585000 1.152000 0
M  V30 18 H -1.268000 -1.219000 1.134000 0
M  V30 19 H 1.905000 -0.902000 -0.683000 0
M  V30 20 H -2.269000 -0.031000 -0.727000 0
M  V30 21 H 2.049000 -0.354000 -3.078000 0
M  V30 22 H -2.132000 0.523000 -3.121000 0
M  V30 23 H -0.123000 -0.399000 -5.059000 0
M  V30 24 H -1.333000 -0.030000 4.784000 0
M  V30 END ATOM
M  V30 BEGIN BOND
M  V30 1 1 1 2
M  V30 2 1 1 14
M  V30 3 1 1 15
M  V30 4 1 2 3
M  V30 5 1 2 5
M  V30 6 1 2 16 CFG=3
M  V30 7 2 3 4
M  V30 8 1 3 13
M  V30 9 1 5 6
M  V30 10 1 5 17
M  V30 11 1 5 18
M  V30 12 2 6 7
M  V30 13 1 6 8
M  V30 14 1 7 9
M  V30 15 1 7 19
M  V30 16 2 8 10
M  V30 17 1 8 20
M  V30 18 2 9 11
M  V30 19 1 9 21
M  V30 20 1 10 11
M  V30 21 1 10 22
M  V30 22 1 11 12
M  V30 23 1 12 23
M  V30 24 1 13 24
M  V30 END BOND
M  V30 END CTAB
M  END
$$$$
